<?xml version="1.0" encoding="UTF-8"?>

<!-- generated on 2022-04-24 19:05:23 by Eclipse SUMO netconvert Version 1.12.0
<configuration xmlns:xsi="http://www.w3.org/2001/XMLSchema-instance" xsi:noNamespaceSchemaLocation="http://sumo.dlr.de/xsd/netconvertConfiguration.xsd">

    <input>
        <osm-files value="map.osm"/>
    </input>

    <output>
        <output-file value="downtown.net.xml"/>
    </output>

    <projection>
        <proj.utm value="true"/>
    </projection>

    <processing>
        <geometry.remove value="true"/>
        <roundabouts.guess value="true"/>
    </processing>

    <tls_building>
        <tls.discard-simple value="true"/>
        <tls.join value="true"/>
        <tls.guess-signals value="true"/>
    </tls_building>

    <ramp_guessing>
        <ramps.guess value="true"/>
    </ramp_guessing>

    <junctions>
        <junctions.join value="true"/>
    </junctions>

    <report>
        <aggregate-warnings value="5"/>
    </report>

</configuration>
-->

<net version="1.9" junctionCornerDetail="5" limitTurnSpeed="5.50" xmlns:xsi="http://www.w3.org/2001/XMLSchema-instance" xsi:noNamespaceSchemaLocation="http://sumo.dlr.de/xsd/net_file.xsd">

    <location netOffset="-462419.85,-3156516.68" convBoundary="0.00,0.00,2052.22,1770.17" origBoundary="-81.384137,28.534927,-81.363174,28.550882" projParameter="+proj=utm +zone=17 +ellps=WGS84 +datum=WGS84 +units=m +no_defs"/>

    <type id="highway.bridleway" priority="1" numLanes="1" speed="2.78" allow="pedestrian" oneway="1" width="2.00"/>
    <type id="highway.bus_guideway" priority="1" numLanes="1" speed="27.78" allow="bus" oneway="1"/>
    <type id="highway.cycleway" priority="1" numLanes="1" speed="8.33" allow="bicycle" oneway="0" width="1.00"/>
    <type id="highway.footway" priority="1" numLanes="1" speed="2.78" allow="pedestrian" oneway="1" width="2.00"/>
    <type id="highway.ford" priority="1" numLanes="1" speed="2.78" allow="army" oneway="0"/>
    <type id="highway.living_street" priority="2" numLanes="1" speed="2.78" disallow="tram rail_urban rail rail_electric rail_fast ship" oneway="0"/>
    <type id="highway.motorway" priority="14" numLanes="2" speed="39.44" allow="private emergency authority army vip passenger hov taxi bus coach delivery truck trailer motorcycle evehicle custom1 custom2" oneway="1"/>
    <type id="highway.motorway_link" priority="9" numLanes="1" speed="22.22" allow="private emergency authority army vip passenger hov taxi bus coach delivery truck trailer motorcycle evehicle custom1 custom2" oneway="1"/>
    <type id="highway.path" priority="1" numLanes="1" speed="2.78" allow="pedestrian bicycle" oneway="0" width="2.00"/>
    <type id="highway.pedestrian" priority="1" numLanes="1" speed="2.78" allow="pedestrian" oneway="1" width="2.00"/>
    <type id="highway.primary" priority="12" numLanes="2" speed="27.78" disallow="tram rail_urban rail rail_electric rail_fast ship" oneway="0"/>
    <type id="highway.primary_link" priority="7" numLanes="1" speed="22.22" disallow="tram rail_urban rail rail_electric rail_fast ship" oneway="0"/>
    <type id="highway.raceway" priority="15" numLanes="2" speed="83.33" allow="vip" oneway="0"/>
    <type id="highway.residential" priority="3" numLanes="1" speed="13.89" disallow="tram rail_urban rail rail_electric rail_fast ship" oneway="0"/>
    <type id="highway.secondary" priority="11" numLanes="1" speed="27.78" disallow="tram rail_urban rail rail_electric rail_fast ship" oneway="0"/>
    <type id="highway.secondary_link" priority="6" numLanes="1" speed="22.22" disallow="tram rail_urban rail rail_electric rail_fast ship" oneway="0"/>
    <type id="highway.service" priority="1" numLanes="1" speed="5.56" allow="pedestrian delivery bicycle" oneway="0"/>
    <type id="highway.stairs" priority="1" numLanes="1" speed="1.39" allow="pedestrian" oneway="1" width="2.00"/>
    <type id="highway.step" priority="1" numLanes="1" speed="1.39" allow="pedestrian" oneway="1" width="2.00"/>
    <type id="highway.steps" priority="1" numLanes="1" speed="1.39" allow="pedestrian" oneway="1" width="2.00"/>
    <type id="highway.tertiary" priority="10" numLanes="1" speed="22.22" disallow="tram rail_urban rail rail_electric rail_fast ship" oneway="0"/>
    <type id="highway.tertiary_link" priority="5" numLanes="1" speed="22.22" disallow="tram rail_urban rail rail_electric rail_fast ship" oneway="0"/>
    <type id="highway.track" priority="1" numLanes="1" speed="5.56" allow="pedestrian motorcycle moped bicycle" oneway="0"/>
    <type id="highway.trunk" priority="13" numLanes="2" speed="27.78" disallow="pedestrian bicycle tram rail_urban rail rail_electric rail_fast ship" oneway="0"/>
    <type id="highway.trunk_link" priority="8" numLanes="1" speed="22.22" disallow="pedestrian bicycle tram rail_urban rail rail_electric rail_fast ship" oneway="0"/>
    <type id="highway.unclassified" priority="4" numLanes="1" speed="13.89" disallow="tram rail_urban rail rail_electric rail_fast ship" oneway="0"/>
    <type id="highway.unsurfaced" priority="1" numLanes="1" speed="8.33" disallow="tram rail_urban rail rail_electric rail_fast ship" oneway="0"/>
    <type id="railway.highspeed" priority="21" numLanes="1" speed="69.44" allow="rail_fast" oneway="1"/>
    <type id="railway.light_rail" priority="19" numLanes="1" speed="27.78" allow="rail_urban" oneway="1"/>
    <type id="railway.preserved" priority="16" numLanes="1" speed="27.78" allow="rail" oneway="1"/>
    <type id="railway.rail" priority="20" numLanes="1" speed="44.44" allow="rail" oneway="1"/>
    <type id="railway.subway" priority="18" numLanes="1" speed="27.78" allow="rail_urban" oneway="1"/>
    <type id="railway.tram" priority="17" numLanes="1" speed="13.89" allow="tram" oneway="1"/>

    <edge id=":1411916029_0" function="internal">
        <lane id=":1411916029_0_0" index="0" allow="pedestrian delivery bicycle" speed="5.03" length="5.01" shape="753.70,885.26 752.33,885.44 751.36,886.01 750.77,886.98 750.57,888.34"/>
    </edge>
    <edge id=":1411916029_1" function="internal">
        <lane id=":1411916029_1_0" index="0" disallow="tram rail_urban rail rail_electric rail_fast ship" speed="13.89" length="6.20" shape="753.70,885.26 747.49,885.19"/>
    </edge>
    <edge id=":1600625627_0" function="internal">
        <lane id=":1600625627_0_0" index="0" disallow="tram rail_urban rail rail_electric rail_fast ship" speed="13.89" length="5.00" shape="1392.23,1100.00 1392.15,1105.00"/>
    </edge>
    <edge id=":1600625627_1" function="internal">
        <lane id=":1600625627_1_0" index="0" disallow="tram rail_urban rail rail_electric rail_fast ship" speed="13.89" length="5.00" shape="1388.95,1104.95 1389.03,1099.95"/>
    </edge>
    <edge id=":2232217258_0" function="internal">
        <lane id=":2232217258_0_0" index="0" disallow="tram rail_urban rail rail_electric rail_fast ship" speed="22.22" length="8.00" shape="1540.56,434.89 1540.50,442.89"/>
    </edge>
    <edge id=":2232217258_1" function="internal">
        <lane id=":2232217258_1_0" index="0" disallow="tram rail_urban rail rail_electric rail_fast ship" speed="22.22" length="8.40" shape="1537.30,442.87 1536.82,440.40 1535.73,438.86 1534.64,437.31 1534.16,434.85"/>
        <lane id=":2232217258_1_1" index="1" disallow="tram rail_urban rail rail_electric rail_fast ship" speed="22.22" length="8.40" shape="1537.30,442.87 1537.36,434.87"/>
    </edge>
    <edge id=":2232217260_0" function="internal">
        <lane id=":2232217260_0_0" index="0" allow="pedestrian delivery bicycle" speed="9.72" length="12.67" shape="927.06,721.03 924.34,718.89 921.95,716.99 919.39,715.67 916.15,715.27"/>
    </edge>
    <edge id=":2232217260_1" function="internal">
        <lane id=":2232217260_1_0" index="0" allow="pedestrian delivery bicycle" speed="7.05" length="18.21" shape="927.06,721.03 922.52,717.11 921.47,714.19 923.91,712.28 929.85,711.37"/>
    </edge>
    <edge id=":2232217260_2" function="internal">
        <lane id=":2232217260_2_0" index="0" allow="pedestrian delivery bicycle" speed="3.65" length="4.67" shape="927.06,721.03 926.54,719.69 926.68,718.80 927.46,718.38 928.91,718.42"/>
    </edge>
    <edge id=":2232217260_3" function="internal">
        <lane id=":2232217260_3_0" index="0" allow="pedestrian delivery bicycle" speed="4.74" length="7.25" shape="930.02,714.57 927.65,714.93 926.68,715.69 927.10,716.85 928.91,718.42"/>
    </edge>
    <edge id=":2232217260_4" function="internal">
        <lane id=":2232217260_4_0" index="0" disallow="tram rail_urban rail rail_electric rail_fast ship" speed="13.89" length="13.88" shape="930.02,714.57 916.15,715.27"/>
    </edge>
    <edge id=":2232217260_5" function="internal">
        <lane id=":2232217260_5_0" index="0" disallow="tram rail_urban rail rail_electric rail_fast ship" speed="13.89" length="13.86" shape="916.01,712.07 929.85,711.37"/>
    </edge>
    <edge id=":2232217260_6" function="internal">
        <lane id=":2232217260_6_0" index="0" allow="pedestrian delivery bicycle" speed="9.72" length="3.58" shape="916.01,712.07 919.56,712.56"/>
    </edge>
    <edge id=":2232217260_7" function="internal">
        <lane id=":2232217260_7_0" index="0" allow="pedestrian delivery bicycle" speed="9.72" length="11.07" shape="919.56,712.56 922.80,714.08 925.87,716.18 928.91,718.42"/>
    </edge>
    <edge id=":2232217268_0" function="internal">
        <lane id=":2232217268_0_0" index="0" disallow="tram rail_urban rail rail_electric rail_fast ship" speed="3.65" length="4.67" shape="1533.14,1258.37 1532.33,1259.56 1531.52,1259.95 1530.73,1259.54 1529.94,1258.34"/>
    </edge>
    <edge id=":2252343228_0" function="internal">
        <lane id=":2252343228_0_0" index="0" disallow="tram rail_urban rail rail_electric rail_fast ship" speed="3.65" length="4.67" shape="1755.66,967.35 1756.85,968.16 1757.24,968.97 1756.83,969.76 1755.62,970.55"/>
    </edge>
    <edge id=":3413882566_0" function="internal">
        <lane id=":3413882566_0_0" index="0" disallow="tram rail_urban rail rail_electric rail_fast ship" speed="13.89" length="5.69" shape="720.17,1302.69 718.59,1303.29 717.50,1303.67 716.38,1303.99 714.74,1304.38"/>
    </edge>
    <edge id=":3413882566_1" function="internal">
        <lane id=":3413882566_1_0" index="0" disallow="tram rail_urban rail rail_electric rail_fast ship" speed="13.89" length="5.26" shape="714.02,1301.26 715.53,1300.90 716.56,1300.61 717.57,1300.26 719.03,1299.70"/>
    </edge>
    <edge id=":4621333638_0" function="internal">
        <lane id=":4621333638_0_0" index="0" allow="pedestrian delivery bicycle" speed="3.65" length="4.67" shape="1034.22,541.49 1033.03,540.68 1032.64,539.87 1033.05,539.08 1034.26,538.29"/>
    </edge>
    <edge id=":5367573493_0" function="internal">
        <lane id=":5367573493_0_0" index="0" disallow="tram rail_urban rail rail_electric rail_fast ship" speed="11.18" length="5.23" shape="515.60,363.44 517.91,358.76"/>
        <lane id=":5367573493_0_1" index="1" disallow="tram rail_urban rail rail_electric rail_fast ship" speed="11.18" length="5.23" shape="518.47,364.86 520.78,360.17"/>
        <lane id=":5367573493_0_2" index="2" disallow="tram rail_urban rail rail_electric rail_fast ship" speed="11.18" length="5.23" shape="521.35,366.27 523.65,361.58"/>
    </edge>
    <edge id=":5367573511_0" function="internal">
        <lane id=":5367573511_0_0" index="0" disallow="tram rail_urban rail rail_electric rail_fast ship" speed="3.65" length="4.67" shape="390.59,606.00 389.40,605.18 389.01,604.38 389.42,603.58 390.63,602.80"/>
    </edge>
    <edge id=":5367573817_0" function="internal">
        <lane id=":5367573817_0_0" index="0" allow="pedestrian bus delivery bicycle" speed="5.56" length="0.24" shape="652.59,870.96 652.59,871.20"/>
    </edge>
    <edge id=":5367573817_1" function="internal">
        <lane id=":5367573817_1_0" index="0" allow="pedestrian bus delivery bicycle" speed="5.56" length="0.42" shape="649.37,871.41 649.39,870.99"/>
    </edge>
    <edge id=":5367573827_0" function="internal">
        <lane id=":5367573827_0_0" index="0" allow="pedestrian bus delivery bicycle" speed="5.56" length="0.15" shape="650.69,984.59 650.68,984.74"/>
    </edge>
    <edge id=":5367573827_1" function="internal">
        <lane id=":5367573827_1_0" index="0" allow="pedestrian bus delivery bicycle" speed="5.56" length="0.33" shape="647.49,984.90 647.49,984.57"/>
    </edge>
    <edge id=":5368780768_0" function="internal">
        <lane id=":5368780768_0_0" index="0" disallow="tram rail_urban rail rail_electric rail_fast ship" speed="13.89" length="2.39" shape="580.46,1077.99 578.07,1077.97"/>
    </edge>
    <edge id=":5368780768_1" function="internal">
        <lane id=":5368780768_1_0" index="0" disallow="tram rail_urban rail rail_electric rail_fast ship" speed="13.89" length="2.38" shape="578.09,1074.77 580.47,1074.79"/>
    </edge>
    <edge id=":5368781625_0" function="internal">
        <lane id=":5368781625_0_0" index="0" disallow="tram rail_urban rail rail_electric rail_fast ship" speed="22.22" length="7.03" shape="245.35,795.27 238.32,795.42"/>
        <lane id=":5368781625_0_1" index="1" disallow="tram rail_urban rail rail_electric rail_fast ship" speed="22.22" length="7.03" shape="245.28,792.07 238.25,792.22"/>
    </edge>
    <edge id=":5368781625_2" function="internal">
        <lane id=":5368781625_2_0" index="0" disallow="tram rail_urban rail rail_electric rail_fast ship" speed="22.22" length="7.03" shape="238.19,789.02 245.22,788.87"/>
    </edge>
    <edge id=":5368781767_0" function="internal">
        <lane id=":5368781767_0_0" index="0" allow="pedestrian delivery bicycle" speed="5.56" length="5.13" shape="726.67,470.13 726.63,465.00"/>
    </edge>
    <edge id=":5368781767_1" function="internal">
        <lane id=":5368781767_1_0" index="0" allow="pedestrian delivery bicycle" speed="3.65" length="1.44" shape="726.67,470.13 727.46,468.93"/>
    </edge>
    <edge id=":5368781767_4" function="internal">
        <lane id=":5368781767_4_0" index="0" allow="pedestrian delivery bicycle" speed="3.65" length="3.23" shape="727.46,468.93 728.25,468.52 729.06,468.91 729.87,470.11"/>
    </edge>
    <edge id=":5368781767_2" function="internal">
        <lane id=":5368781767_2_0" index="0" allow="pedestrian delivery bicycle" speed="5.56" length="5.13" shape="729.83,464.97 729.87,470.11"/>
    </edge>
    <edge id=":5368781767_3" function="internal">
        <lane id=":5368781767_3_0" index="0" allow="pedestrian delivery bicycle" speed="3.65" length="1.44" shape="729.83,464.97 729.03,466.18"/>
    </edge>
    <edge id=":5368781767_5" function="internal">
        <lane id=":5368781767_5_0" index="0" allow="pedestrian delivery bicycle" speed="3.65" length="3.23" shape="729.03,466.18 728.24,466.59 727.43,466.19 726.63,465.00"/>
    </edge>
    <edge id=":5368781770_0" function="internal">
        <lane id=":5368781770_0_0" index="0" allow="pedestrian delivery bicycle" speed="5.56" length="5.05" shape="728.04,595.74 728.03,600.78"/>
    </edge>
    <edge id=":5368782242_0" function="internal">
        <lane id=":5368782242_0_0" index="0" disallow="tram rail_urban rail rail_electric rail_fast ship" speed="13.89" length="4.38" shape="663.86,1305.78 659.48,1305.84"/>
    </edge>
    <edge id=":5368782242_1" function="internal">
        <lane id=":5368782242_1_0" index="0" disallow="tram rail_urban rail rail_electric rail_fast ship" speed="13.89" length="4.39" shape="659.42,1302.65 663.81,1302.58"/>
    </edge>
    <edge id=":5368782567_0" function="internal">
        <lane id=":5368782567_0_0" index="0" disallow="tram rail_urban rail rail_electric rail_fast ship" speed="13.89" length="5.04" shape="797.67,885.78 792.63,885.72"/>
    </edge>
    <edge id=":5369071467_0" function="internal">
        <lane id=":5369071467_0_0" index="0" allow="pedestrian delivery bicycle" speed="5.56" length="5.00" shape="571.95,1088.16 571.98,1083.16"/>
    </edge>
    <edge id=":5369071468_0" function="internal">
        <lane id=":5369071468_0_0" index="0" disallow="tram rail_urban rail rail_electric rail_fast ship" speed="13.89" length="4.20" shape="575.12,1077.96 570.92,1077.93"/>
    </edge>
    <edge id=":5369071468_1" function="internal">
        <lane id=":5369071468_1_0" index="0" disallow="tram rail_urban rail rail_electric rail_fast ship" speed="13.89" length="4.21" shape="570.93,1074.73 575.14,1074.76"/>
    </edge>
    <edge id=":5369071468_2" function="internal">
        <lane id=":5369071468_2_0" index="0" allow="pedestrian delivery bicycle" speed="4.39" length="3.55" shape="572.00,1081.04 571.94,1079.68 571.74,1078.71 571.40,1078.13 570.92,1077.93"/>
    </edge>
    <edge id=":5369071468_3" function="internal">
        <lane id=":5369071468_3_0" index="0" allow="pedestrian delivery bicycle" speed="6.09" length="7.76" shape="572.00,1081.04 572.21,1078.29 572.81,1076.32 573.78,1075.14 575.14,1074.76"/>
    </edge>
    <edge id=":5369071470_0" function="internal">
        <lane id=":5369071470_0_0" index="0" allow="pedestrian delivery bicycle" speed="5.56" length="5.04" shape="582.51,1083.23 582.49,1088.26"/>
    </edge>
    <edge id=":5369071471_0" function="internal">
        <lane id=":5369071471_0_0" index="0" allow="pedestrian delivery bicycle" speed="5.63" length="6.48" shape="587.39,1078.01 585.26,1078.20 583.74,1078.77 582.83,1079.74 582.52,1081.10"/>
    </edge>
    <edge id=":5369071471_1" function="internal">
        <lane id=":5369071471_1_0" index="0" disallow="tram rail_urban rail rail_electric rail_fast ship" speed="13.89" length="6.73" shape="587.39,1078.01 580.66,1077.99"/>
    </edge>
    <edge id=":5369071471_2" function="internal">
        <lane id=":5369071471_2_0" index="0" allow="pedestrian delivery bicycle" speed="6.70" length="3.32" shape="587.39,1078.01 584.55,1077.63 584.16,1077.40"/>
    </edge>
    <edge id=":5369071471_10" function="internal">
        <lane id=":5369071471_10_0" index="0" allow="pedestrian delivery bicycle" speed="6.70" length="6.65" shape="584.16,1077.40 582.57,1076.50 581.43,1074.62 581.16,1072.00"/>
    </edge>
    <edge id=":5369071471_3" function="internal">
        <lane id=":5369071471_3_0" index="0" allow="pedestrian delivery bicycle" speed="4.82" length="4.64" shape="584.35,1072.16 584.49,1073.32 585.05,1074.14 586.02,1074.64 587.40,1074.81"/>
    </edge>
    <edge id=":5369071471_4" function="internal">
        <lane id=":5369071471_4_0" index="0" allow="pedestrian delivery bicycle" speed="5.56" length="9.17" shape="584.35,1072.16 583.97,1074.84 583.36,1076.63 582.78,1078.42 582.52,1081.10"/>
    </edge>
    <edge id=":5369071471_5" function="internal">
        <lane id=":5369071471_5_0" index="0" allow="pedestrian delivery bicycle" speed="6.14" length="7.65" shape="584.35,1072.16 584.01,1074.72 583.28,1076.54 582.16,1077.63 580.66,1077.99"/>
    </edge>
    <edge id=":5369071471_6" function="internal">
        <lane id=":5369071471_6_0" index="0" allow="pedestrian delivery bicycle" speed="3.65" length="4.67" shape="584.35,1072.16 583.49,1073.32 582.68,1073.68 581.90,1073.24 581.16,1072.00"/>
    </edge>
    <edge id=":5369071471_7" function="internal">
        <lane id=":5369071471_7_0" index="0" allow="pedestrian delivery bicycle" speed="4.22" length="3.08" shape="580.67,1074.79 581.16,1074.50 581.27,1073.77 581.20,1072.86 581.16,1072.00"/>
    </edge>
    <edge id=":5369071471_8" function="internal">
        <lane id=":5369071471_8_0" index="0" disallow="tram rail_urban rail rail_electric rail_fast ship" speed="13.89" length="6.73" shape="580.67,1074.79 587.40,1074.81"/>
    </edge>
    <edge id=":5369071471_9" function="internal">
        <lane id=":5369071471_9_0" index="0" allow="pedestrian delivery bicycle" speed="5.81" length="1.19" shape="580.67,1074.79 581.49,1075.19 581.61,1075.44"/>
    </edge>
    <edge id=":5369071471_11" function="internal">
        <lane id=":5369071471_11_0" index="0" allow="pedestrian delivery bicycle" speed="5.81" length="5.80" shape="581.61,1075.44 582.07,1076.37 582.41,1078.34 582.52,1081.10"/>
    </edge>
    <edge id=":5369071485_0" function="internal">
        <lane id=":5369071485_0_0" index="0" allow="pedestrian delivery bicycle" speed="3.65" length="4.67" shape="419.95,1116.37 418.77,1115.56 418.38,1114.75 418.79,1113.96 420.00,1113.18"/>
    </edge>
    <edge id=":5369071488_0" function="internal">
        <lane id=":5369071488_0_0" index="0" allow="pedestrian delivery bicycle" speed="3.65" length="4.67" shape="420.15,1097.91 418.95,1097.10 418.55,1096.30 418.96,1095.50 420.16,1094.71"/>
    </edge>
    <edge id=":5369264452_0" function="internal">
        <lane id=":5369264452_0_0" index="0" allow="pedestrian delivery bicycle" speed="5.56" length="4.67" shape="735.55,1235.67 730.88,1235.62"/>
    </edge>
    <edge id=":5369264452_1" function="internal">
        <lane id=":5369264452_1_0" index="0" allow="pedestrian delivery bicycle" speed="3.65" length="1.44" shape="735.55,1235.67 734.36,1234.86"/>
    </edge>
    <edge id=":5369264452_4" function="internal">
        <lane id=":5369264452_4_0" index="0" allow="pedestrian delivery bicycle" speed="3.65" length="3.23" shape="734.36,1234.86 733.97,1234.06 734.37,1233.26 735.58,1232.47"/>
    </edge>
    <edge id=":5369264452_2" function="internal">
        <lane id=":5369264452_2_0" index="0" allow="pedestrian delivery bicycle" speed="5.56" length="4.67" shape="730.91,1232.42 735.58,1232.47"/>
    </edge>
    <edge id=":5369264452_3" function="internal">
        <lane id=":5369264452_3_0" index="0" allow="pedestrian delivery bicycle" speed="3.65" length="1.44" shape="730.91,1232.42 732.10,1233.24"/>
    </edge>
    <edge id=":5369264452_5" function="internal">
        <lane id=":5369264452_5_0" index="0" allow="pedestrian delivery bicycle" speed="3.65" length="3.23" shape="732.10,1233.24 732.49,1234.04 732.09,1234.84 730.88,1235.62"/>
    </edge>
    <edge id=":5369264453_0" function="internal">
        <lane id=":5369264453_0_0" index="0" allow="pedestrian delivery bicycle" speed="4.92" length="4.71" shape="730.52,1235.62 729.32,1235.80 728.45,1236.38 727.93,1237.34 727.74,1238.69"/>
    </edge>
    <edge id=":5369264453_1" function="internal">
        <lane id=":5369264453_1_0" index="0" allow="pedestrian delivery bicycle" speed="6.77" length="9.87" shape="730.52,1235.62 727.92,1235.20 726.08,1234.00 724.98,1232.02 724.64,1229.26"/>
    </edge>
    <edge id=":5369264453_2" function="internal">
        <lane id=":5369264453_2_0" index="0" allow="pedestrian delivery bicycle" speed="3.65" length="4.67" shape="730.52,1235.62 729.33,1234.81 728.93,1234.01 729.34,1233.21 730.55,1232.42"/>
    </edge>
    <edge id=":5369264453_3" function="internal">
        <lane id=":5369264453_3_0" index="0" allow="pedestrian delivery bicycle" speed="4.92" length="4.71" shape="727.84,1229.29 728.00,1230.65 728.50,1231.63 729.35,1232.22 730.55,1232.42"/>
    </edge>
    <edge id=":5369264453_4" function="internal">
        <lane id=":5369264453_4_0" index="0" disallow="tram rail_urban rail rail_electric rail_fast ship" speed="13.89" length="9.40" shape="727.84,1229.29 727.74,1238.69"/>
    </edge>
    <edge id=":5369264453_5" function="internal">
        <lane id=":5369264453_5_0" index="0" disallow="tram rail_urban rail rail_electric rail_fast ship" speed="13.89" length="9.40" shape="724.54,1238.66 724.64,1229.26"/>
    </edge>
    <edge id=":5369264453_6" function="internal">
        <lane id=":5369264453_6_0" index="0" allow="pedestrian delivery bicycle" speed="6.77" length="3.34" shape="724.54,1238.66 724.94,1235.91 725.22,1235.43"/>
    </edge>
    <edge id=":5369264453_7" function="internal">
        <lane id=":5369264453_7_0" index="0" allow="pedestrian delivery bicycle" speed="6.77" length="6.53" shape="725.22,1235.43 726.08,1233.95 727.95,1232.79 730.55,1232.42"/>
    </edge>
    <edge id=":5369264470_0" function="internal">
        <lane id=":5369264470_0_0" index="0" allow="pedestrian delivery bicycle" speed="5.56" length="5.03" shape="718.99,1245.52 713.97,1245.48"/>
    </edge>
    <edge id=":5369264470_1" function="internal">
        <lane id=":5369264470_1_0" index="0" allow="pedestrian delivery bicycle" speed="3.65" length="1.44" shape="718.99,1245.52 717.80,1244.71"/>
    </edge>
    <edge id=":5369264470_4" function="internal">
        <lane id=":5369264470_4_0" index="0" allow="pedestrian delivery bicycle" speed="3.65" length="3.23" shape="717.80,1244.71 717.40,1243.91 717.81,1243.11 719.01,1242.32"/>
    </edge>
    <edge id=":5369264470_2" function="internal">
        <lane id=":5369264470_2_0" index="0" allow="pedestrian delivery bicycle" speed="5.56" length="5.02" shape="713.99,1242.28 719.01,1242.32"/>
    </edge>
    <edge id=":5369264470_3" function="internal">
        <lane id=":5369264470_3_0" index="0" allow="pedestrian delivery bicycle" speed="3.65" length="1.44" shape="713.99,1242.28 715.19,1243.09"/>
    </edge>
    <edge id=":5369264470_5" function="internal">
        <lane id=":5369264470_5_0" index="0" allow="pedestrian delivery bicycle" speed="3.65" length="3.23" shape="715.19,1243.09 715.58,1243.90 715.17,1244.69 713.97,1245.48"/>
    </edge>
    <edge id=":5369264471_0" function="internal">
        <lane id=":5369264471_0_0" index="0" disallow="tram rail_urban rail rail_electric rail_fast ship" speed="13.89" length="9.40" shape="727.74,1239.29 727.64,1248.69"/>
    </edge>
    <edge id=":5369264471_1" function="internal">
        <lane id=":5369264471_1_0" index="0" allow="pedestrian delivery bicycle" speed="6.87" length="3.26" shape="727.74,1239.29 727.31,1242.04 727.06,1242.44"/>
    </edge>
    <edge id=":5369264471_7" function="internal">
        <lane id=":5369264471_7_0" index="0" allow="pedestrian delivery bicycle" speed="6.87" length="6.91" shape="727.06,1242.44 726.11,1243.99 724.13,1245.16 721.36,1245.53"/>
    </edge>
    <edge id=":5369264471_2" function="internal">
        <lane id=":5369264471_2_0" index="0" allow="pedestrian delivery bicycle" speed="5.05" length="5.02" shape="721.38,1242.33 722.75,1242.15 723.73,1241.57 724.33,1240.61 724.54,1239.26"/>
    </edge>
    <edge id=":5369264471_3" function="internal">
        <lane id=":5369264471_3_0" index="0" allow="pedestrian delivery bicycle" speed="6.86" length="10.18" shape="721.38,1242.33 724.14,1242.74 726.11,1243.94 727.27,1245.92 727.64,1248.69"/>
    </edge>
    <edge id=":5369264471_4" function="internal">
        <lane id=":5369264471_4_0" index="0" allow="pedestrian delivery bicycle" speed="3.65" length="4.67" shape="721.38,1242.33 722.58,1243.14 722.97,1243.94 722.57,1244.74 721.36,1245.53"/>
    </edge>
    <edge id=":5369264471_5" function="internal">
        <lane id=":5369264471_5_0" index="0" allow="pedestrian delivery bicycle" speed="5.04" length="5.00" shape="724.44,1248.66 724.26,1247.30 723.69,1246.32 722.72,1245.73 721.36,1245.53"/>
    </edge>
    <edge id=":5369264471_6" function="internal">
        <lane id=":5369264471_6_0" index="0" disallow="tram rail_urban rail rail_electric rail_fast ship" speed="13.89" length="9.40" shape="724.44,1248.66 724.54,1239.26"/>
    </edge>
    <edge id=":5369372036_0" function="internal">
        <lane id=":5369372036_0_0" index="0" allow="pedestrian delivery bicycle" speed="5.56" length="0.28" shape="730.53,1168.75 730.81,1168.75"/>
    </edge>
    <edge id=":5369372036_1" function="internal">
        <lane id=":5369372036_1_0" index="0" allow="pedestrian delivery bicycle" speed="3.65" length="1.44" shape="730.53,1168.75 729.34,1167.93"/>
    </edge>
    <edge id=":5369372036_4" function="internal">
        <lane id=":5369372036_4_0" index="0" allow="pedestrian delivery bicycle" speed="3.65" length="3.23" shape="729.34,1167.93 728.95,1167.13 729.36,1166.33 730.58,1165.55"/>
    </edge>
    <edge id=":5369372036_2" function="internal">
        <lane id=":5369372036_2_0" index="0" allow="pedestrian delivery bicycle" speed="5.56" length="4.10" shape="726.48,1165.49 730.58,1165.55"/>
    </edge>
    <edge id=":5369372036_3" function="internal">
        <lane id=":5369372036_3_0" index="0" allow="pedestrian delivery bicycle" speed="4.42" length="3.96" shape="726.48,1165.49 728.78,1164.68 730.27,1164.95"/>
    </edge>
    <edge id=":5369372036_5" function="internal">
        <lane id=":5369372036_5_0" index="0" allow="pedestrian delivery bicycle" speed="4.42" length="3.96" shape="730.27,1164.95 730.95,1166.31 730.81,1168.75"/>
    </edge>
    <edge id=":5369372037_0" function="internal">
        <lane id=":5369372037_0_0" index="0" allow="pedestrian delivery bicycle" speed="5.56" length="2.85" shape="754.83,1181.53 754.81,1184.38"/>
    </edge>
    <edge id=":5369372037_1" function="internal">
        <lane id=":5369372037_1_0" index="0" allow="pedestrian delivery bicycle" speed="3.65" length="1.44" shape="754.83,1181.53 754.02,1182.73"/>
    </edge>
    <edge id=":5369372037_4" function="internal">
        <lane id=":5369372037_4_0" index="0" allow="pedestrian delivery bicycle" speed="3.65" length="3.23" shape="754.02,1182.73 753.22,1183.12 752.42,1182.71 751.64,1181.50"/>
    </edge>
    <edge id=":5369372037_2" function="internal">
        <lane id=":5369372037_2_0" index="0" allow="pedestrian delivery bicycle" speed="5.56" length="2.85" shape="751.61,1184.35 751.64,1181.50"/>
    </edge>
    <edge id=":5369372037_3" function="internal">
        <lane id=":5369372037_3_0" index="0" allow="pedestrian delivery bicycle" speed="3.65" length="1.44" shape="751.61,1184.35 752.42,1183.16"/>
    </edge>
    <edge id=":5369372037_5" function="internal">
        <lane id=":5369372037_5_0" index="0" allow="pedestrian delivery bicycle" speed="3.65" length="3.23" shape="752.42,1183.16 753.22,1182.77 754.02,1183.17 754.81,1184.38"/>
    </edge>
    <edge id=":5369372043_0" function="internal">